<configuration>
	<input>
		<net-file value="UMassDart22.net.xml" />
		<route-files value="UMassDart22.rou.xml" />
	</input>
	<time>
		<begin value="0" />
		<end value="1000" />
	</time>
</configuration>
