<?xml version="1.0" encoding="UTF-8"?>

<!-- generated on 2023-03-06 20:06:51 by Eclipse SUMO netconvert Version 1.15.0
<configuration xmlns:xsi="http://www.w3.org/2001/XMLSchema-instance" xsi:noNamespaceSchemaLocation="http://sumo.dlr.de/xsd/netconvertConfiguration.xsd">

    <input>
        <node-files value="C:\MOSAIC\eclipse-mosaic-22.1\scenarios\UMassDart43\sumo\UMassDart43.nod.xml"/>
        <edge-files value="C:\MOSAIC\eclipse-mosaic-22.1\scenarios\UMassDart43\sumo\UMassDart43.edg.xml"/>
        <connection-files value="C:\MOSAIC\eclipse-mosaic-22.1\scenarios\UMassDart43\sumo\UMassDart43.con.xml"/>
    </input>

    <output>
        <output-file value="C:\MOSAIC\eclipse-mosaic-22.1\scenarios\UMassDart43\sumo\UMassDart43.net.xml"/>
    </output>

</configuration>
-->

<net version="1.9" junctionCornerDetail="5" limitTurnSpeed="5.50" xmlns:xsi="http://www.w3.org/2001/XMLSchema-instance" xsi:noNamespaceSchemaLocation="http://sumo.dlr.de/xsd/net_file.xsd">

    <location netOffset="-332379.13,-4609727.80" convBoundary="0.00,0.00,1237.41,1362.38" origBoundary="332379.13,4609727.80,333616.54,4611090.18" projParameter="!"/>

    <edge id=":3557278301_0" function="internal">
        <lane id=":3557278301_0_0" index="0" speed="9.75" length="24.98" shape="464.41,1190.65 466.18,1184.23 466.69,1178.52 466.54,1172.69 466.30,1165.93"/>
        <lane id=":3557278301_0_1" index="1" speed="9.75" length="25.59" shape="467.42,1191.75 469.21,1185.24 469.80,1179.32 469.71,1173.29 469.51,1166.44"/>
    </edge>
    <edge id=":3557278301_2" function="internal">
        <lane id=":3557278301_2_0" index="0" speed="8.33" length="25.01" shape="467.42,1191.75 469.22,1185.27 470.12,1179.48 471.12,1173.73 473.23,1167.37"/>
        <lane id=":3557278301_2_1" index="1" speed="8.33" length="25.01" shape="467.42,1191.75 476.24,1168.48"/>
    </edge>
    <edge id=":65634861_0" function="internal">
        <lane id=":65634861_0_0" index="0" speed="8.33" length="4.62" shape="1069.29,678.98 1064.67,678.98"/>
        <lane id=":65634861_0_1" index="1" speed="8.33" length="4.62" shape="1069.28,682.18 1064.67,682.18"/>
    </edge>
    <edge id=":65652978_0" function="internal">
        <lane id=":65652978_0_0" index="0" speed="8.33" length="15.55" shape="467.13,1209.39 453.61,1201.71"/>
    </edge>
    <edge id=":65652978_1" function="internal">
        <lane id=":65652978_1_0" index="0" speed="8.25" length="2.74" shape="467.13,1209.39 465.10,1207.55"/>
    </edge>
    <edge id=":65652978_2" function="internal">
        <lane id=":65652978_2_0" index="0" speed="3.65" length="1.44" shape="467.13,1209.39 466.48,1208.11"/>
    </edge>
    <edge id=":65652978_9" function="internal">
        <lane id=":65652978_9_0" index="0" speed="8.25" length="10.47" shape="465.10,1207.55 464.12,1204.94 464.20,1201.56 465.34,1197.41"/>
    </edge>
    <edge id=":65652978_10" function="internal">
        <lane id=":65652978_10_0" index="0" speed="3.65" length="3.23" shape="466.48,1208.11 466.53,1207.21 467.27,1206.72 468.71,1206.61"/>
    </edge>
    <edge id=":65652978_3" function="internal">
        <lane id=":65652978_3_0" index="0" speed="6.18" length="9.05" shape="455.19,1198.92 457.55,1199.85 459.53,1199.73 461.13,1198.54 462.34,1196.31"/>
    </edge>
    <edge id=":65652978_4" function="internal">
        <lane id=":65652978_4_0" index="0" speed="8.33" length="15.56" shape="455.19,1198.92 468.71,1206.61"/>
    </edge>
    <edge id=":65652978_5" function="internal">
        <lane id=":65652978_5_0" index="0" speed="3.65" length="1.44" shape="455.19,1198.92 455.84,1200.21"/>
    </edge>
    <edge id=":65652978_11" function="internal">
        <lane id=":65652978_11_0" index="0" speed="3.65" length="3.23" shape="455.84,1200.21 455.79,1201.11 455.05,1201.60 453.61,1201.71"/>
    </edge>
    <edge id=":65652978_6" function="internal">
        <lane id=":65652978_6_0" index="0" speed="8.24" length="13.21" shape="459.98,1212.01 460.34,1209.29 459.40,1206.67 457.16,1204.14 453.61,1201.71"/>
    </edge>
    <edge id=":65652978_7" function="internal">
        <lane id=":65652978_7_0" index="0" speed="8.33" length="15.55" shape="459.98,1212.01 465.34,1197.41"/>
    </edge>
    <edge id=":65652978_8" function="internal">
        <lane id=":65652978_8_0" index="0" speed="7.02" length="12.05" shape="459.98,1212.01 461.71,1208.46 463.74,1206.37 466.07,1205.76 468.71,1206.61"/>
    </edge>
    <edge id=":65654830_0" function="internal">
        <lane id=":65654830_0_0" index="0" speed="3.65" length="4.67" shape="75.04,0.10 75.93,-1.03 76.76,-1.36 77.53,-0.90 78.22,0.36"/>
    </edge>
    <edge id=":65666527_0" function="internal">
        <lane id=":65666527_0_0" index="0" speed="6.25" length="8.76" shape="149.47,90.34 148.92,88.15 147.69,86.73 145.77,86.08 143.17,86.18"/>
    </edge>
    <edge id=":65666527_1" function="internal">
        <lane id=":65666527_1_0" index="0" speed="8.33" length="14.70" shape="149.47,90.34 148.08,75.70"/>
    </edge>
    <edge id=":65666527_2" function="internal">
        <lane id=":65666527_2_0" index="0" speed="3.65" length="1.44" shape="149.47,90.34 150.17,89.08"/>
    </edge>
    <edge id=":65666527_9" function="internal">
        <lane id=":65666527_9_0" index="0" speed="3.65" length="3.23" shape="150.17,89.08 150.94,88.61 151.77,88.94 152.66,90.07"/>
    </edge>
    <edge id=":65666527_3" function="internal">
        <lane id=":65666527_3_0" index="0" speed="8.33" length="14.80" shape="151.26,75.34 152.66,90.07"/>
    </edge>
    <edge id=":65666527_4" function="internal">
        <lane id=":65666527_4_0" index="0" speed="8.33" length="4.45" shape="151.26,75.34 151.15,79.52 151.04,79.77"/>
    </edge>
    <edge id=":65666527_5" function="internal">
        <lane id=":65666527_5_0" index="0" speed="3.65" length="1.44" shape="151.26,75.34 150.60,76.63"/>
    </edge>
    <edge id=":65666527_10" function="internal">
        <lane id=":65666527_10_0" index="0" speed="8.33" length="10.80" shape="151.04,79.77 149.76,82.71 147.10,84.94 143.17,86.18"/>
    </edge>
    <edge id=":65666527_11" function="internal">
        <lane id=":65666527_11_0" index="0" speed="3.65" length="3.23" shape="150.60,76.63 149.85,77.11 149.01,76.80 148.08,75.70"/>
    </edge>
    <edge id=":65666527_6" function="internal">
        <lane id=":65666527_6_0" index="0" speed="7.20" length="10.83" shape="141.99,83.14 144.92,82.25 146.91,80.71 147.97,78.53 148.08,75.70"/>
    </edge>
    <edge id=":65666527_7" function="internal">
        <lane id=":65666527_7_0" index="0" speed="7.92" length="14.77" shape="141.99,83.14 146.40,82.95 149.64,84.04 151.73,86.42 152.66,90.07"/>
    </edge>
    <edge id=":65666527_8" function="internal">
        <lane id=":65666527_8_0" index="0" speed="3.68" length="4.77" shape="141.99,83.14 143.43,83.46 144.11,84.07 144.02,84.98 143.17,86.18"/>
    </edge>
    <edge id=":65684486_0" function="internal">
        <lane id=":65684486_0_0" index="0" speed="6.95" length="8.88" shape="866.39,963.76 863.76,963.77 861.69,964.41 860.17,965.67 859.22,967.55"/>
    </edge>
    <edge id=":65684486_1" function="internal">
        <lane id=":65684486_1_0" index="0" speed="6.73" length="10.95" shape="866.72,960.58 863.15,959.85 860.82,958.55 859.72,956.67 859.85,954.21"/>
    </edge>
    <edge id=":65684486_2" function="internal">
        <lane id=":65684486_2_0" index="0" speed="8.33" length="13.04" shape="862.94,955.05 859.22,967.55"/>
    </edge>
    <edge id=":65684486_3" function="internal">
        <lane id=":65684486_3_0" index="0" speed="3.65" length="4.67" shape="862.94,955.05 861.85,956.00 860.97,956.18 860.31,955.58 859.85,954.21"/>
    </edge>
    <edge id=":65684486_4" function="internal">
        <lane id=":65684486_4_0" index="0" speed="8.33" length="12.94" shape="856.16,966.61 859.85,954.21"/>
    </edge>
    <edge id=":65684486_5" function="internal">
        <lane id=":65684486_5_0" index="0" speed="3.65" length="4.67" shape="856.16,966.61 857.28,965.70 858.16,965.55 858.81,966.17 859.22,967.55"/>
    </edge>
    <edge id=":65701784_0" function="internal">
        <lane id=":65701784_0_0" index="0" speed="8.33" length="0.27" shape="134.94,115.55 134.92,115.82"/>
    </edge>
    <edge id=":65701784_1" function="internal">
        <lane id=":65701784_1_0" index="0" speed="3.65" length="2.34" shape="134.94,115.55 134.07,116.69 133.25,117.05"/>
    </edge>
    <edge id=":65701784_4" function="internal">
        <lane id=":65701784_4_0" index="0" speed="3.65" length="2.34" shape="133.25,117.05 132.47,116.60 131.75,115.35"/>
    </edge>
    <edge id=":65701784_2" function="internal">
        <lane id=":65701784_2_0" index="0" speed="8.33" length="0.13" shape="131.74,115.48 131.75,115.35"/>
    </edge>
    <edge id=":65701784_3" function="internal">
        <lane id=":65701784_3_0" index="0" speed="3.65" length="2.34" shape="131.74,115.48 132.66,114.37 133.50,114.06"/>
    </edge>
    <edge id=":65701784_5" function="internal">
        <lane id=":65701784_5_0" index="0" speed="3.65" length="2.34" shape="133.50,114.06 134.25,114.54 134.92,115.82"/>
    </edge>
    <edge id=":65704676_0" function="internal">
        <lane id=":65704676_0_0" index="0" speed="8.33" length="14.45" shape="584.19,1178.11 580.89,1178.53 577.98,1179.56 574.66,1180.61 570.13,1181.09"/>
    </edge>
    <edge id=":65704676_1" function="internal">
        <lane id=":65704676_1_0" index="0" speed="3.65" length="4.67" shape="584.19,1178.11 583.01,1177.28 582.62,1176.48 583.04,1175.68 584.26,1174.91"/>
    </edge>
    <edge id=":65704676_2" function="internal">
        <lane id=":65704676_2_0" index="0" speed="7.59" length="11.17" shape="578.63,1166.28 579.41,1170.02 580.61,1172.71 582.22,1174.34 584.26,1174.91"/>
    </edge>
    <edge id=":65704676_3" function="internal">
        <lane id=":65704676_3_0" index="0" speed="7.55" length="16.43" shape="575.21,1166.09 576.81,1171.25 576.49,1174.94 574.27,1177.15 570.14,1177.89"/>
    </edge>
    <edge id=":65704676_4" function="internal">
        <lane id=":65704676_4_0" index="0" speed="8.33" length="14.73" shape="570.17,1170.82 574.72,1171.97 578.05,1173.29 580.96,1174.40 584.26,1174.91"/>
    </edge>
    <edge id=":65704676_5" function="internal">
        <lane id=":65704676_5_0" index="0" speed="3.97" length="5.58" shape="570.16,1174.07 571.59,1175.03 572.06,1175.99 571.58,1176.94 570.14,1177.89"/>
    </edge>
    <edge id=":65725776_0" function="internal">
        <lane id=":65725776_0_0" index="0" speed="3.65" length="4.67" shape="1000.94,928.96 1000.03,930.07 999.19,930.39 998.44,929.92 997.76,928.64"/>
    </edge>
    <edge id=":65728175_0" function="internal">
        <lane id=":65728175_0_0" index="0" speed="6.34" length="4.81" shape="1074.11,948.61 1073.18,947.79 1072.53,946.83 1072.16,945.73 1072.08,944.49"/>
    </edge>
    <edge id=":65728175_1" function="internal">
        <lane id=":65728175_1_0" index="0" speed="3.65" length="1.44" shape="1074.11,948.61 1073.59,947.27"/>
    </edge>
    <edge id=":65728175_4" function="internal">
        <lane id=":65728175_4_0" index="0" speed="3.65" length="3.23" shape="1073.59,947.27 1073.72,946.39 1074.51,945.96 1075.95,946.00"/>
    </edge>
    <edge id=":65728175_2" function="internal">
        <lane id=":65728175_2_0" index="0" speed="4.04" length="1.60" shape="1075.27,944.62 1075.30,945.03 1075.42,945.40 1075.64,945.72 1075.95,946.00"/>
    </edge>
    <edge id=":65728175_3" function="internal">
        <lane id=":65728175_3_0" index="0" speed="3.65" length="1.33" shape="1075.27,944.62 1074.49,945.69"/>
    </edge>
    <edge id=":65728175_5" function="internal">
        <lane id=":65728175_5_0" index="0" speed="3.65" length="3.35" shape="1074.49,945.69 1074.42,945.79 1073.61,946.15 1072.82,945.72 1072.08,944.49"/>
    </edge>
    <edge id=":65728477_0" function="internal">
        <lane id=":65728477_0_0" index="0" speed="8.33" length="10.05" shape="1143.11,984.24 1141.70,986.98 1140.65,988.80 1139.44,990.53 1137.56,992.96"/>
        <lane id=":65728477_0_1" index="1" speed="8.33" length="10.05" shape="1140.25,982.80 1138.94,985.36 1137.95,987.08 1136.81,988.70 1135.04,990.98"/>
    </edge>
    <edge id=":65728477_2" function="internal">
        <lane id=":65728477_2_0" index="0" speed="6.08" length="8.10" shape="1140.25,982.80 1138.79,985.18 1137.30,986.62 1135.77,987.12 1134.21,986.68"/>
    </edge>
    <edge id=":65728477_3" function="internal">
        <lane id=":65728477_3_0" index="0" speed="5.95" length="8.17" shape="1135.82,983.91 1137.00,985.06 1137.26,986.63 1136.61,988.60 1135.04,990.98"/>
    </edge>
    <edge id=":65728477_4" function="internal">
        <lane id=":65728477_4_0" index="0" speed="3.65" length="4.67" shape="1135.82,983.91 1136.45,985.20 1136.40,986.09 1135.65,986.59 1134.21,986.68"/>
    </edge>
    <edge id=":65729064_0" function="internal">
        <lane id=":65729064_0_0" index="0" speed="7.42" length="8.87" shape="60.59,349.35 59.76,346.70 58.61,344.75 57.14,343.47 55.34,342.89"/>
    </edge>
    <edge id=":65729064_1" function="internal">
        <lane id=":65729064_1_0" index="0" speed="6.02" length="8.88" shape="63.71,348.65 63.12,345.19 63.14,342.72 63.74,341.24 64.95,340.75"/>
    </edge>
    <edge id=":65729064_2" function="internal">
        <lane id=":65729064_2_0" index="0" speed="8.33" length="9.67" shape="64.94,343.95 62.08,343.86 60.13,343.64 58.18,343.30 55.34,342.89"/>
    </edge>
    <edge id=":65729064_3" function="internal">
        <lane id=":65729064_3_0" index="0" speed="3.65" length="4.67" shape="64.94,343.95 63.74,343.15 63.35,342.35 63.75,341.55 64.95,340.75"/>
    </edge>
    <edge id=":65729064_4" function="internal">
        <lane id=":65729064_4_0" index="0" speed="8.33" length="9.29" shape="55.74,339.71 58.47,340.11 60.33,340.44 62.20,340.66 64.95,340.75"/>
    </edge>
    <edge id=":65729064_5" function="internal">
        <lane id=":65729064_5_0" index="0" speed="3.65" length="4.67" shape="55.74,339.71 56.83,340.65 57.13,341.50 56.63,342.24 55.34,342.89"/>
    </edge>
    <edge id=":65731770_0" function="internal">
        <lane id=":65731770_0_0" index="0" speed="8.33" length="15.34" shape="71.81,332.28 71.84,335.66 72.72,338.77 74.36,342.20 76.66,346.56"/>
    </edge>
    <edge id=":65731770_1" function="internal">
        <lane id=":65731770_1_0" index="0" speed="8.33" length="14.56" shape="71.81,332.28 70.90,337.39 69.49,341.05 67.57,343.23 65.14,343.95"/>
    </edge>
    <edge id=":65731770_2" function="internal">
        <lane id=":65731770_2_0" index="0" speed="3.65" length="1.44" shape="71.81,332.28 70.88,333.38"/>
    </edge>
    <edge id=":65731770_6" function="internal">
        <lane id=":65731770_6_0" index="0" speed="3.65" length="3.23" shape="70.88,333.38 70.04,333.69 69.29,333.20 68.63,331.92"/>
    </edge>
    <edge id=":65731770_3" function="internal">
        <lane id=":65731770_3_0" index="0" speed="7.07" length="9.97" shape="65.15,340.75 66.30,340.21 67.27,338.55 68.04,335.79 68.63,331.92"/>
    </edge>
    <edge id=":65731770_4" function="internal">
        <lane id=":65731770_4_0" index="0" speed="8.12" length="1.55" shape="65.15,340.75 66.68,340.98"/>
    </edge>
    <edge id=":65731770_5" function="internal">
        <lane id=":65731770_5_0" index="0" speed="3.65" length="1.16" shape="65.15,340.75 66.11,341.40"/>
    </edge>
    <edge id=":65731770_7" function="internal">
        <lane id=":65731770_7_0" index="0" speed="8.12" length="10.84" shape="66.68,340.98 68.38,341.22 70.90,342.59 72.70,344.86 73.79,348.04"/>
    </edge>
    <edge id=":65731770_8" function="internal">
        <lane id=":65731770_8_0" index="0" speed="3.65" length="3.52" shape="66.11,341.40 66.35,341.56 66.75,342.36 66.34,343.16 65.14,343.95"/>
    </edge>
    <edge id=":65739166_0" function="internal">
        <lane id=":65739166_0_0" index="0" speed="8.33" length="14.43" shape="143.09,164.57 138.51,178.26"/>
    </edge>
    <edge id=":65739166_1" function="internal">
        <lane id=":65739166_1_0" index="0" speed="7.80" length="4.10" shape="143.09,164.57 141.24,168.23"/>
    </edge>
    <edge id=":65739166_2" function="internal">
        <lane id=":65739166_2_0" index="0" speed="3.65" length="1.44" shape="143.09,164.57 141.95,165.46"/>
    </edge>
    <edge id=":65739166_9" function="internal">
        <lane id=":65739166_9_0" index="0" speed="7.80" length="10.59" shape="141.24,168.23 138.71,170.26 135.48,170.66 131.58,169.42"/>
    </edge>
    <edge id=":65739166_10" function="internal">
        <lane id=":65739166_10_0" index="0" speed="3.65" length="3.23" shape="141.95,165.46 141.06,165.58 140.43,164.95 140.06,163.55"/>
    </edge>
    <edge id=":65739166_3" function="internal">
        <lane id=":65739166_3_0" index="0" speed="6.25" length="9.05" shape="132.96,166.54 135.37,167.30 137.36,167.06 138.92,165.81 140.06,163.55"/>
    </edge>
    <edge id=":65739166_4" function="internal">
        <lane id=":65739166_4_0" index="0" speed="8.33" length="14.40" shape="132.96,166.54 136.36,168.74 138.42,171.43 139.14,174.60 138.51,178.26"/>
    </edge>
    <edge id=":65739166_5" function="internal">
        <lane id=":65739166_5_0" index="0" speed="3.65" length="4.67" shape="132.96,166.54 133.70,167.78 133.71,168.68 133.01,169.22 131.58,169.42"/>
    </edge>
    <edge id=":65739166_6" function="internal">
        <lane id=":65739166_6_0" index="0" speed="7.04" length="9.70" shape="135.47,177.25 135.87,174.84 135.35,172.73 133.92,170.93 131.58,169.42"/>
    </edge>
    <edge id=":65739166_7" function="internal">
        <lane id=":65739166_7_0" index="0" speed="8.33" length="14.44" shape="135.47,177.25 140.06,163.55"/>
    </edge>
    <edge id=":65739166_8" function="internal">
        <lane id=":65739166_8_0" index="0" speed="3.65" length="1.44" shape="135.47,177.25 136.61,176.37"/>
    </edge>
    <edge id=":65739166_11" function="internal">
        <lane id=":65739166_11_0" index="0" speed="3.65" length="3.23" shape="136.61,176.37 137.50,176.24 138.13,176.87 138.51,178.26"/>
    </edge>
    <edge id=":65754948_0" function="internal">
        <lane id=":65754948_0_0" index="0" speed="8.33" length="0.10" shape="858.06,606.00 858.09,606.08"/>
    </edge>
    <edge id=":65754948_1" function="internal">
        <lane id=":65754948_1_0" index="0" speed="3.65" length="2.34" shape="858.06,606.00 858.50,604.62 859.15,604.01"/>
    </edge>
    <edge id=":65754948_4" function="internal">
        <lane id=":65754948_4_0" index="0" speed="3.65" length="2.34" shape="859.15,604.01 860.03,604.17 861.14,605.10"/>
    </edge>
    <edge id=":65754948_2" function="internal">
        <lane id=":65754948_2_0" index="0" speed="8.33" length="0.10" shape="861.11,605.02 861.14,605.10"/>
    </edge>
    <edge id=":65754948_3" function="internal">
        <lane id=":65754948_3_0" index="0" speed="3.65" length="2.34" shape="861.11,605.02 860.75,606.42 860.13,607.06"/>
    </edge>
    <edge id=":65754948_5" function="internal">
        <lane id=":65754948_5_0" index="0" speed="3.65" length="2.34" shape="860.13,607.06 859.24,606.95 858.09,606.08"/>
    </edge>
    <edge id=":65785619_0" function="internal">
        <lane id=":65785619_0_0" index="0" speed="8.33" length="8.46" shape="87.99,405.08 86.11,403.44 84.29,402.95 82.42,402.51 80.36,401.02"/>
        <lane id=":65785619_0_1" index="1" speed="8.33" length="8.46" shape="87.99,405.08 86.53,403.17 85.49,401.90 84.39,400.68 82.77,398.91"/>
    </edge>
    <edge id=":65785619_2" function="internal">
        <lane id=":65785619_2_0" index="0" speed="3.65" length="1.44" shape="87.99,405.08 87.91,403.64"/>
    </edge>
    <edge id=":65785619_5" function="internal">
        <lane id=":65785619_5_0" index="0" speed="3.65" length="3.23" shape="87.91,403.64 88.31,402.84 89.18,402.67 90.55,403.15"/>
    </edge>
    <edge id=":65785619_3" function="internal">
        <lane id=":65785619_3_0" index="0" speed="8.33" length="10.11" shape="89.07,393.40 89.71,396.28 89.43,398.50 89.34,400.60 90.55,403.15"/>
    </edge>
    <edge id=":65785619_4" function="internal">
        <lane id=":65785619_4_0" index="0" speed="4.49" length="3.88" shape="86.54,395.62 86.83,397.85 86.30,399.15 86.08,399.20"/>
    </edge>
    <edge id=":65785619_6" function="internal">
        <lane id=":65785619_6_0" index="0" speed="4.49" length="3.42" shape="86.08,399.20 84.95,399.50 82.77,398.91"/>
    </edge>
    <edge id=":65791157_0" function="internal">
        <lane id=":65791157_0_0" index="0" speed="6.36" length="8.90" shape="541.31,1160.66 541.17,1163.14 541.86,1165.02 543.36,1166.32 545.68,1167.01"/>
        <lane id=":65791157_0_1" index="1" speed="7.84" length="14.08" shape="538.16,1160.04 537.95,1163.99 539.02,1167.00 541.37,1169.05 545.02,1170.15"/>
    </edge>
    <edge id=":65791157_2" function="internal">
        <lane id=":65791157_2_0" index="0" speed="8.33" length="14.28" shape="531.69,1164.17 545.68,1167.01"/>
        <lane id=":65791157_2_1" index="1" speed="8.33" length="14.28" shape="531.03,1167.30 545.02,1170.15"/>
    </edge>
    <edge id=":65799893_0" function="internal">
        <lane id=":65799893_0_0" index="0" speed="8.33" length="13.99" shape="693.14,404.89 680.79,398.30"/>
    </edge>
    <edge id=":65799893_1" function="internal">
        <lane id=":65799893_1_0" index="0" speed="8.33" length="3.31" shape="693.14,404.89 690.57,402.81"/>
    </edge>
    <edge id=":65799893_2" function="internal">
        <lane id=":65799893_2_0" index="0" speed="3.65" length="1.44" shape="693.14,404.89 692.49,403.60"/>
    </edge>
    <edge id=":65799893_9" function="internal">
        <lane id=":65799893_9_0" index="0" speed="8.33" length="10.30" shape="690.57,402.81 689.12,400.13 688.79,396.85 689.59,392.97"/>
    </edge>
    <edge id=":65799893_10" function="internal">
        <lane id=":65799893_10_0" index="0" speed="3.65" length="3.23" shape="692.49,403.60 692.54,402.71 693.28,402.21 694.72,402.11"/>
    </edge>
    <edge id=":65799893_3" function="internal">
        <lane id=":65799893_3_0" index="0" speed="6.92" length="8.72" shape="692.47,394.46 691.96,396.96 692.16,399.06 693.08,400.78 694.72,402.11"/>
    </edge>
    <edge id=":65799893_4" function="internal">
        <lane id=":65799893_4_0" index="0" speed="7.69" length="14.52" shape="692.47,394.46 690.73,397.82 688.20,399.58 684.89,399.74 680.79,398.30"/>
    </edge>
    <edge id=":65799893_5" function="internal">
        <lane id=":65799893_5_0" index="0" speed="3.67" length="4.74" shape="692.47,394.46 691.19,395.17 690.28,395.16 689.75,394.42 689.59,392.97"/>
    </edge>
    <edge id=":65799893_6" function="internal">
        <lane id=":65799893_6_0" index="0" speed="6.25" length="9.19" shape="682.22,395.44 684.80,396.34 686.89,396.23 688.48,395.11 689.59,392.97"/>
    </edge>
    <edge id=":65799893_7" function="internal">
        <lane id=":65799893_7_0" index="0" speed="8.33" length="14.17" shape="682.22,395.44 694.72,402.11"/>
    </edge>
    <edge id=":65799893_8" function="internal">
        <lane id=":65799893_8_0" index="0" speed="3.65" length="1.44" shape="682.22,395.44 682.94,396.69"/>
    </edge>
    <edge id=":65799893_11" function="internal">
        <lane id=":65799893_11_0" index="0" speed="3.65" length="3.23" shape="682.94,396.69 682.94,397.59 682.22,398.12 680.79,398.30"/>
    </edge>
    <edge id=":65802025_0" function="internal">
        <lane id=":65802025_0_0" index="0" speed="8.33" length="0.10" shape="884.03,842.21 884.03,842.21"/>
    </edge>
    <edge id=":65802025_1" function="internal">
        <lane id=":65802025_1_0" index="0" speed="3.65" length="2.34" shape="884.03,842.21 883.12,843.33 882.29,843.65"/>
    </edge>
    <edge id=":65802025_4" function="internal">
        <lane id=":65802025_4_0" index="0" speed="3.65" length="2.34" shape="882.29,843.65 881.53,843.18 880.85,841.91"/>
    </edge>
    <edge id=":65802025_2" function="internal">
        <lane id=":65802025_2_0" index="0" speed="8.33" length="0.10" shape="880.85,841.91 880.85,841.91"/>
    </edge>
    <edge id=":65802025_3" function="internal">
        <lane id=":65802025_3_0" index="0" speed="3.65" length="2.34" shape="880.85,841.91 881.76,840.79 882.59,840.47"/>
    </edge>
    <edge id=":65802025_5" function="internal">
        <lane id=":65802025_5_0" index="0" speed="3.65" length="2.34" shape="882.59,840.47 883.35,840.94 884.03,842.21"/>
    </edge>
    <edge id=":65808859_0" function="internal">
        <lane id=":65808859_0_0" index="0" speed="8.33" length="0.29" shape="117.39,224.27 117.25,224.52"/>
    </edge>
    <edge id=":65808859_1" function="internal">
        <lane id=":65808859_1_0" index="0" speed="3.65" length="2.34" shape="117.39,224.27 116.10,224.91 115.21,224.86"/>
    </edge>
    <edge id=":65808859_4" function="internal">
        <lane id=":65808859_4_0" index="0" speed="3.65" length="2.34" shape="115.21,224.86 114.71,224.11 114.62,222.67"/>
    </edge>
    <edge id=":65808859_2" function="internal">
        <lane id=":65808859_2_0" index="0" speed="8.33" length="0.31" shape="114.47,222.94 114.62,222.67"/>
    </edge>
    <edge id=":65808859_3" function="internal">
        <lane id=":65808859_3_0" index="0" speed="3.65" length="2.34" shape="114.47,222.94 115.76,222.29 116.65,222.34"/>
    </edge>
    <edge id=":65808859_5" function="internal">
        <lane id=":65808859_5_0" index="0" speed="3.65" length="2.34" shape="116.65,222.34 117.15,223.08 117.25,224.52"/>
    </edge>
    <edge id=":65811791_0" function="internal">
        <lane id=":65811791_0_0" index="0" speed="8.33" length="0.28" shape="132.90,135.06 132.87,135.34"/>
    </edge>
    <edge id=":65811791_1" function="internal">
        <lane id=":65811791_1_0" index="0" speed="3.65" length="2.34" shape="132.90,135.06 131.98,136.17 131.14,136.48"/>
    </edge>
    <edge id=":65811791_4" function="internal">
        <lane id=":65811791_4_0" index="0" speed="3.65" length="2.34" shape="131.14,136.48 130.38,136.00 129.71,134.73"/>
    </edge>
    <edge id=":65811791_2" function="internal">
        <lane id=":65811791_2_0" index="0" speed="8.33" length="0.31" shape="129.68,135.04 129.71,134.73"/>
    </edge>
    <edge id=":65811791_3" function="internal">
        <lane id=":65811791_3_0" index="0" speed="3.65" length="2.34" shape="129.68,135.04 130.59,133.92 131.43,133.59"/>
    </edge>
    <edge id=":65811791_5" function="internal">
        <lane id=":65811791_5_0" index="0" speed="3.65" length="2.34" shape="131.43,133.59 132.19,134.07 132.87,135.34"/>
    </edge>
    <edge id=":65835949_0" function="internal">
        <lane id=":65835949_0_0" index="0" speed="8.33" length="3.12" shape="1128.76,686.47 1125.83,685.70"/>
        <lane id=":65835949_0_1" index="1" speed="8.33" length="3.12" shape="1127.94,689.56 1124.84,688.74"/>
    </edge>
    <edge id=":65837113_0" function="internal">
        <lane id=":65837113_0_0" index="0" speed="3.65" length="4.67" shape="-0.18,336.43 -1.28,335.50 -1.59,334.66 -1.10,333.91 0.18,333.25"/>
    </edge>
    <edge id=":9064757604_0" function="internal">
        <lane id=":9064757604_0_0" index="0" speed="8.33" length="14.40" shape="226.07,516.71 217.69,528.42"/>
    </edge>
    <edge id=":9064757604_1" function="internal">
        <lane id=":9064757604_1_0" index="0" speed="8.10" length="4.02" shape="226.07,516.71 223.40,519.48 223.24,519.55"/>
    </edge>
    <edge id=":9064757604_2" function="internal">
        <lane id=":9064757604_2_0" index="0" speed="3.65" length="1.44" shape="226.07,516.71 224.72,517.22"/>
    </edge>
    <edge id=":9064757604_9" function="internal">
        <lane id=":9064757604_9_0" index="0" speed="8.10" length="10.21" shape="223.24,519.55 220.45,520.76 217.21,520.54 213.68,518.82"/>
    </edge>
    <edge id=":9064757604_10" function="internal">
        <lane id=":9064757604_10_0" index="0" speed="3.65" length="3.23" shape="224.72,517.22 223.83,517.08 223.41,516.29 223.46,514.85"/>
    </edge>
    <edge id=":9064757604_3" function="internal">
        <lane id=":9064757604_3_0" index="0" speed="6.62" length="9.18" shape="215.47,516.16 217.75,517.28 219.85,517.44 221.75,516.62 223.46,514.85"/>
    </edge>
    <edge id=":9064757604_4" function="internal">
        <lane id=":9064757604_4_0" index="0" speed="7.95" length="14.30" shape="215.47,516.16 218.39,518.80 219.74,521.72 219.50,524.93 217.69,528.42"/>
    </edge>
    <edge id=":9064757604_5" function="internal">
        <lane id=":9064757604_5_0" index="0" speed="3.65" length="4.67" shape="215.47,516.16 216.02,517.50 215.90,518.38 215.13,518.83 213.68,518.82"/>
    </edge>
    <edge id=":9064757604_6" function="internal">
        <lane id=":9064757604_6_0" index="0" speed="6.45" length="9.03" shape="215.09,526.56 216.23,524.36 216.38,522.33 215.53,520.49 213.68,518.82"/>
    </edge>
    <edge id=":9064757604_7" function="internal">
        <lane id=":9064757604_7_0" index="0" speed="8.33" length="14.40" shape="215.09,526.56 223.46,514.85"/>
    </edge>
    <edge id=":9064757604_8" function="internal">
        <lane id=":9064757604_8_0" index="0" speed="3.65" length="1.44" shape="215.09,526.56 216.44,526.05"/>
    </edge>
    <edge id=":9064757604_11" function="internal">
        <lane id=":9064757604_11_0" index="0" speed="3.65" length="3.23" shape="216.44,526.05 217.32,526.19 217.74,526.98 217.69,528.42"/>
    </edge>
    <edge id=":9064757609_0" function="internal">
        <lane id=":9064757609_0_0" index="0" speed="8.33" length="14.40" shape="399.19,350.44 385.94,356.06"/>
    </edge>