<edges>
	<edge id="8989990_65666527_65739166" from="65666527" to="65739166" numLanes="1" shape="332529.52,4609809.74,0.00 332530.34,4609819.72,0.00 332529.91,4609833.72,0.00 332527.91,4609851.43,0.00 332526.27,4609866.91,0.00 332522.79,4609885.66,0.00 332518.27,4609899.09,0.00" speed="8.33" />
	<edge id="665703559_65802025_65684486" from="65802025" to="65684486" numLanes="1" shape="333261.57,4610569.86,0.00 333260.34,4610582.84,0.00 333258.50,4610597.27,0.00 333256.33,4610611.61,0.00 333253.83,4610625.93,0.00 333249.73,4610646.14,0.00 333244.95,4610666.21,0.00 333239.52,4610686.11,0.00" speed="8.33" />
	<edge id="8989984_65811791_65701784" from="65811791" to="65701784" numLanes="1" shape="332510.42,4609862.84,0.00 332512.47,4609843.35,0.00" speed="8.33" />
	<edge id="979897977_9064849188_65652978" from="9064849188" to="65652978" numLanes="1" shape="332865.15,4610946.11,0.00 332843.11,4610933.56,0.00" speed="8.33" />
	<edge id="979897977_65652978_9064757604" from="65652978" to="9064757604" numLanes="1" shape="332843.11,4610933.56,0.00 332836.12,4610929.59,0.00 332699.72,4610851.98,0.00 332630.89,4610812.82,0.00 332616.03,4610803.57,0.00 332601.51,4610793.81,0.00 332587.34,4610783.54,0.00 332573.54,4610772.78,0.00 332570.98,4610770.63,0.00 332560.13,4610761.55,0.00 332547.12,4610749.86,0.00 332534.50,4610737.69,0.00 332524.21,4610726.63,0.00 332514.72,4610714.83,0.00 332511.16,4610709.72,0.00 332506.09,4610702.40,0.00 332498.37,4610689.38,0.00 332491.61,4610675.84,0.00 332485.83,4610661.85,0.00 332481.07,4610647.50,0.00 332477.34,4610632.83,0.00 332474.69,4610617.94,0.00 332473.09,4610602.90,0.00 332472.59,4610587.80,0.00 332472.94,4610578.56,0.00 332473.16,4610572.70,0.00 332475.79,4610547.36,0.00 332479.50,4610522.21,0.00 332484.30,4610497.25,0.00 332490.17,4610472.52,0.00 332497.10,4610448.05,0.00 332505.40,4610423.32,0.00 332514.74,4610398.96,0.00 332516.39,4610395.12,0.00 332525.08,4610375.01,0.00 332536.42,4610351.53,0.00 332548.73,4610328.52,0.00 332562.01,4610306.06,0.00 332576.17,4610284.25,0.00 332592.61,4610259.37,0.00 332599.76,4610249.36,0.00" speed="8.33" />
	<edge id="8988229_65652978_3557278301" from="65652978" to="3557278301" numLanes="2" shape="332843.11,4610933.56,0.00 332848.78,4610918.11,0.00" speed="8.33" />
	<edge id="442654309_65729064_65731770" from="65729064" to="65731770" numLanes="1" shape="332443.07,4610070.15,0.00 332448.21,4610070.17,0.00" speed="8.33" />
	<edge id="632740795_9064757616_65634861" from="9064757616" to="65634861" numLanes="2" shape="333262.17,4610457.42,0.00 333275.44,4610456.05,0.00 333308.78,4610452.84,0.00 333321.68,4610449.90,0.00 333336.80,4610445.01,0.00 333365.16,4610433.24,0.00 333382.45,4610426.17,0.00 333401.53,4610419.45,0.00 333424.18,4610414.03,0.00 333444.23,4610411.57,0.00 333445.13,4610411.57,0.00 333448.56,4610411.58,0.00" speed="8.33" />
	<edge id="979897977_9064757604_65652978" from="9064757604" to="65652978" numLanes="1" shape="332599.76,4610249.36,0.00 332592.61,4610259.37,0.00 332576.17,4610284.25,0.00 332562.01,4610306.06,0.00 332548.73,4610328.52,0.00 332536.42,4610351.53,0.00 332525.08,4610375.01,0.00 332516.39,4610395.12,0.00 332514.74,4610398.96,0.00 332505.40,4610423.32,0.00 332497.10,4610448.05,0.00 332490.17,4610472.52,0.00 332484.30,4610497.25,0.00 332479.50,4610522.21,0.00 332475.79,4610547.36,0.00 332473.16,4610572.70,0.00 332472.94,4610578.56,0.00 332472.59,4610587.80,0.00 332473.09,4610602.90,0.00 332474.69,4610617.94,0.00 332477.34,4610632.83,0.00 332481.07,4610647.50,0.00 332485.83,4610661.85,0.00 332491.61,4610675.84,0.00 332498.37,4610689.38,0.00 332506.09,4610702.40,0.00 332511.16,4610709.72,0.00 332514.72,4610714.83,0.00 332524.21,4610726.63,0.00 332534.50,4610737.69,0.00 332547.12,4610749.86,0.00 332560.13,4610761.55,0.00 332570.98,4610770.63,0.00 332573.54,4610772.78,0.00 332587.34,4610783.54,0.00 332601.51,4610793.81,0.00 332616.03,4610803.57,0.00 332630.89,4610812.82,0.00 332699.72,4610851.98,0.00 332836.12,4610929.59,0.00 332843.11,4610933.56,0.00" speed="8.33" />
	<edge id="8989325_65785619_65729064" from="65785619" to="65729064" numLanes="2" shape="332466.49,4610129.38,0.00 332460.94,4610123.27,0.00 332453.53,4610109.28,0.00 332450.47,4610101.75,0.00 332448.27,4610096.81,0.00 332445.68,4610081.82,0.00 332443.07,4610070.15,0.00" speed="8.33" />
	<edge id="632740793_65728175_65728477" from="65728175" to="65728477" numLanes="1" shape="333452.73,4610674.10,0.00 333479.93,4610693.24,0.00 333515.83,4610714.07,0.00" speed="8.33" />
	<edge id="8988229_65791157_65704676" from="65791157" to="65704676" numLanes="2" shape="332913.78,4610897.50,0.00 332922.32,4610899.30,0.00 332939.60,4610901.83,0.00 332952.78,4610904.09,0.00" speed="8.33" />
	<edge id="979897977_65652978_9064849188" from="65652978" to="9064849188" numLanes="1" shape="332843.11,4610933.56,0.00 332865.15,4610946.11,0.00" speed="8.33" />
	<edge id="8989998_65739166_65808859" from="65739166" to="65808859" numLanes="1" shape="332518.27,4609899.09,0.00 332511.02,4609920.93,0.00 332503.56,4609936.65,0.00 332495.06,4609951.40,0.00" speed="8.33" />
	<edge id="8989990_65811791_65739166" from="65811791" to="65739166" numLanes="1" shape="332510.42,4609862.84,0.00 332507.81,4609890.34,0.00 332509.92,4609895.07,0.00 332518.27,4609899.09,0.00" speed="8.33" />
	<edge id="8989984_65701784_65811791" from="65701784" to="65811791" numLanes="1" shape="332512.47,4609843.35,0.00 332510.42,4609862.84,0.00" speed="8.33" />
	<edge id="632740793_65728477_65728175" from="65728477" to="65728175" numLanes="1" shape="333515.83,4610714.07,0.00 333479.93,4610693.24,0.00 333452.73,4610674.10,0.00" speed="8.33" />
	<edge id="632740794_9064849300_9064849299" from="9064849300" to="9064849299" numLanes="2" shape="333449.12,4610411.58,0.00 333470.48,4610411.52,0.00 333492.60,4610415.18,0.00 333500.09,4610417.16,0.00" speed="8.33" />
	<edge id="665703563_65754948_9064757616" from="65754948" to="9064757616" numLanes="1" shape="333238.73,4610333.35,0.00 333244.10,4610351.78,0.00 333249.03,4610371.64,0.00 333252.72,4610389.74,0.00 333254.34,4610397.68,0.00 333258.13,4610421.34,0.00 333258.54,4610423.91,0.00 333261.64,4610450.29,0.00 333262.17,4610457.42,0.00" speed="8.33" />
	<edge id="273624018_65704676_9064849188" from="65704676" to="9064849188" numLanes="2" shape="332952.78,4610904.09,0.00 332939.53,4610904.09,0.00 332905.86,4610902.33,0.00 332903.10,4610902.29,0.00 332899.93,4610902.44,0.00 332897.21,4610902.92,0.00 332894.14,4610903.67,0.00 332891.55,4610904.64,0.00 332888.67,4610905.96,0.00 332886.31,4610907.38,0.00 332883.74,4610909.22,0.00 332881.67,4610911.06,0.00 332879.50,4610913.35,0.00 332877.82,4610915.52,0.00 332876.12,4610918.20,0.00 332874.86,4610920.64,0.00 332873.20,4610924.21,0.00 332865.15,4610946.11,0.00" speed="8.33" />
	<edge id="979897977_65754948_65799893" from="65754948" to="65799893" numLanes="1" shape="333238.73,4610333.35,0.00 333232.20,4610314.83,0.00 333224.65,4610296.70,0.00 333216.11,4610279.01,0.00 333206.61,4610261.81,0.00 333196.17,4610245.17,0.00 333184.83,4610229.13,0.00 333172.62,4610213.72,0.00 333159.58,4610199.02,0.00 333145.87,4610185.11,0.00 333131.41,4610171.95,0.00 333116.24,4610159.61,0.00 333100.41,4610148.12,0.00 333083.96,4610137.52,0.00 333066.97,4610127.83,0.00" speed="8.33" />
	<edge id="8989984_65701784_65666527" from="65701784" to="65666527" numLanes="1" shape="332512.47,4609843.35,0.00 332513.25,4609830.56,0.00 332514.16,4609815.76,0.00 332517.76,4609813.12,0.00 332523.16,4609812.22,0.00 332529.52,4609809.74,0.00" speed="8.33" />
	<edge id="8989990_65739166_65811791" from="65739166" to="65811791" numLanes="1" shape="332518.27,4609899.09,0.00 332509.92,4609895.07,0.00 332507.81,4609890.34,0.00 332510.42,4609862.84,0.00" speed="8.33" />
	<edge id="979897976_3557278301_9064849353" from="3557278301" to="9064849353" numLanes="2" shape="332848.78,4610918.11,0.00 332849.85,4610911.41,0.00 332850.40,4610904.50,0.00 332850.28,4610898.03,0.00 332850.19,4610889.82,0.00 332850.72,4610886.24,0.00 332851.92,4610882.81,0.00 332853.29,4610880.12,0.00 332855.06,4610877.70,0.00 332857.18,4610875.58,0.00 332859.60,4610873.82,0.00 332862.48,4610872.36,0.00 332865.57,4610871.38,0.00 332868.76,4610870.94,0.00 332871.97,4610871.03,0.00 332875.78,4610871.86,0.00 332891.52,4610877.35,0.00 332908.08,4610881.97,0.00 332916.49,4610883.61,0.00" speed="11.18" />
	<edge id="979897977_65799893_9064757609" from="65799893" to="9064757609" numLanes="1" shape="333066.97,4610127.83,0.00 333061.07,4610124.89,0.00 333049.45,4610119.09,0.00 333031.49,4610111.34,0.00 333013.12,4610104.58,0.00 333002.61,4610101.35,0.00 332994.46,4610098.84,0.00 332963.66,4610090.41,0.00 332955.03,4610088.35,0.00 332932.58,4610083.01,0.00 332901.27,4610076.68,0.00 332898.71,4610076.25,0.00 332869.76,4610071.42,0.00 332847.94,4610068.41,0.00 332843.86,4610068.19,0.00 332825.68,4610067.15,0.00 332812.76,4610068.14,0.00 332800.10,4610070.22,0.00 332787.65,4610073.34,0.00 332775.51,4610077.51,0.00 332770.88,4610079.55,0.00" speed="8.33" />
	<edge id="8989984_65666527_65701784" from="65666527" to="65701784" numLanes="1" shape="332529.52,4609809.74,0.00 332523.16,4609812.22,0.00 332517.76,4609813.12,0.00 332514.16,4609815.76,0.00 332513.25,4609830.56,0.00 332512.47,4609843.35,0.00" speed="8.33" />
	<edge id="442654313_65837113_65729064" from="65837113" to="65729064" numLanes="1" shape="332379.13,4610062.64,0.00 332419.91,4610067.25,0.00 332443.07,4610070.15,0.00" speed="8.33" />
	<edge id="665703563_9064757616_65754948" from="9064757616" to="65754948" numLanes="1" shape="333262.17,4610457.42,0.00 333261.64,4610450.29,0.00 333258.54,4610423.91,0.00 333258.13,4610421.34,0.00 333254.34,4610397.68,0.00 333252.72,4610389.74,0.00 333249.03,4610371.64,0.00 333244.10,4610351.78,0.00 333238.73,4610333.35,0.00" speed="8.33" />
	<edge id="273624018_9064849188_65674337" from="9064849188" to="65674337" numLanes="2" shape="332865.15,4610946.11,0.00 332812.28,4611090.18,0.00" speed="8.33" />
	<edge id="979897977_9064757604_9064757609" from="9064757604" to="9064757609" numLanes="1" shape="332599.76,4610249.36,0.00 332609.98,4610235.06,0.00 332628.23,4610211.39,0.00 332641.97,4610194.86,0.00 332647.33,4610188.41,0.00 332660.18,4610174.07,0.00 332667.27,4610166.14,0.00 332688.00,4610144.60,0.00 332709.52,4610123.84,0.00 332713.18,4610120.55,0.00 332731.83,4610103.83,0.00 332741.83,4610095.91,0.00 332744.67,4610094.04,0.00 332752.52,4610088.83,0.00 332763.78,4610082.68,0.00 332770.88,4610079.55,0.00" speed="8.33" />
	<edge id="979897976_9064849353_65704676" from="9064849353" to="65704676" numLanes="2" shape="332916.49,4610883.61,0.00 332924.91,4610885.23,0.00 332941.52,4610887.84,0.00 332946.55,4610888.71,0.00 332948.83,4610889.61,0.00 332950.67,4610890.97,0.00 332952.11,4610892.75,0.00 332953.02,4610894.86,0.00 332953.30,4610896.95,0.00 332952.78,4610904.09,0.00" speed="11.18" />
	<edge id="979897977_9064757609_65799893" from="9064757609" to="65799893" numLanes="1" shape="332770.88,4610079.55,0.00 332775.51,4610077.51,0.00 332787.65,4610073.34,0.00 332800.10,4610070.22,0.00 332812.76,4610068.14,0.00 332825.68,4610067.15,0.00 332843.86,4610068.19,0.00 332847.94,4610068.41,0.00 332869.76,4610071.42,0.00 332898.71,4610076.25,0.00 332901.27,4610076.68,0.00 332932.58,4610083.01,0.00 332955.03,4610088.35,0.00 332963.66,4610090.41,0.00 332994.46,4610098.84,0.00 333002.61,4610101.35,0.00 333013.12,4610104.58,0.00 333031.49,4610111.34,0.00 333049.45,4610119.09,0.00 333061.07,4610124.89,0.00 333066.97,4610127.83,0.00" speed="8.33" />
	<edge id="632740794_65634861_9064849300" from="65634861" to="9064849300" numLanes="2" shape="333448.56,4610411.58,0.00 333449.12,4610411.58,0.00" speed="8.33" />
	<edge id="8990002_65808859_65731770" from="65808859" to="65731770" numLanes="1" shape="332495.06,4609951.40,0.00 332482.09,4609974.15,0.00 332472.51,4609988.81,0.00 332465.56,4610001.53,0.00 332458.73,4610016.24,0.00 332451.81,4610037.62,0.00 332448.21,4610070.17,0.00" speed="8.33" />
	<edge id="8989010_65823092_65652978" from="65823092" to="65652978" numLanes="1" shape="332789.16,4611080.55,0.00 332843.11,4610933.56,0.00" speed="8.33" />
	<edge id="8988229_3557278301_65791157" from="3557278301" to="65791157" numLanes="2" shape="332848.78,4610918.11,0.00 332855.14,4610900.81,0.00 332859.10,4610891.72,0.00 332860.70,4610889.30,0.00 332862.87,4610887.38,0.00 332865.45,4610886.06,0.00 332868.28,4610885.43,0.00 332871.18,4610885.54,0.00 332873.96,4610886.37,0.00 332888.53,4610891.06,0.00 332906.58,4610895.98,0.00 332913.78,4610897.50,0.00" speed="8.33" />
	<edge id="665703559_65704676_65684486" from="65704676" to="65684486" numLanes="1" shape="332952.78,4610904.09,0.00 332974.47,4610904.54,0.00 332979.85,4610904.31,0.00 332991.83,4610903.81,0.00 333008.90,4610901.93,0.00 333025.95,4610898.99,0.00 333042.78,4610894.96,0.00 333059.30,4610889.86,0.00 333075.47,4610883.72,0.00 333091.21,4610876.57,0.00 333106.46,4610868.41,0.00 333121.15,4610859.32,0.00 333135.33,4610849.30,0.00 333148.84,4610838.39,0.00 333152.28,4610835.24,0.00 333161.63,4610826.65,0.00 333173.63,4610814.11,0.00 333184.80,4610800.83,0.00 333195.10,4610786.87,0.00 333204.47,4610772.28,0.00 333212.90,4610757.12,0.00 333220.33,4610741.45,0.00 333226.71,4610725.38,0.00 333233.44,4610705.84,0.00 333239.52,4610686.11,0.00" speed="8.33" />
	<edge id="8989872_65728477_65684486" from="65728477" to="65684486" numLanes="2" shape="333515.83,4610714.07,0.00 333508.55,4610723.35,0.00 333499.85,4610736.33,0.00 333492.56,4610745.38,0.00 333483.94,4610754.92,0.00 333478.98,4610758.55,0.00 333471.73,4610763.86,0.00 333461.90,4610767.54,0.00 333450.48,4610771.13,0.00 333437.53,4610772.27,0.00 333422.40,4610771.56,0.00 333408.39,4610767.33,0.00 333399.61,4610762.65,0.00 333386.90,4610753.72,0.00 333373.25,4610743.49,0.00 333356.45,4610730.77,0.00 333338.97,4610717.29,0.00 333321.97,4610706.57,0.00 333309.07,4610700.43,0.00 333299.16,4610697.33,0.00 333271.31,4610689.42,0.00 333239.52,4610686.11,0.00" speed="8.33" />
	<edge id="665703559_65684486_65802025" from="65684486" to="65802025" numLanes="1" shape="333239.52,4610686.11,0.00 333244.95,4610666.21,0.00 333249.73,4610646.14,0.00 333253.83,4610625.93,0.00 333256.33,4610611.61,0.00 333258.50,4610597.27,0.00 333260.34,4610582.84,0.00 333261.57,4610569.86,0.00" speed="8.33" />
	<edge id="8989869_65728175_65725776" from="65728175" to="65725776" numLanes="1" shape="333452.73,4610674.10,0.00 333452.89,4610670.32,0.00 333453.06,4610666.65,0.00 333452.81,4610663.10,0.00 333452.23,4610659.67,0.00 333451.40,4610656.36,0.00 333450.00,4610653.39,0.00 333447.95,4610651.21,0.00 333445.41,4610649.39,0.00 333442.71,4610647.89,0.00 333439.09,4610646.64,0.00 333435.16,4610645.96,0.00 333431.15,4610645.38,0.00 333424.54,4610644.65,0.00 333417.95,4610644.25,0.00 333411.35,4610643.73,0.00 333405.25,4610642.65,0.00 333399.13,4610641.46,0.00 333393.05,4610641.49,0.00 333390.31,4610642.00,0.00 333387.66,4610642.73,0.00 333385.19,4610643.89,0.00 333383.06,4610645.61,0.00 333381.19,4610647.65,0.00 333379.83,4610650.02,0.00 333378.82,4610653.15,0.00 333378.48,4610656.60,0.00" speed="8.33" />
	<edge id="8989984_65654830_65666527" from="65654830" to="65666527" numLanes="1" shape="332455.76,4609728.03,0.00 332453.16,4609759.42,0.00 332451.36,4609782.34,0.00 332449.47,4609787.16,0.00 332445.60,4609789.37,0.00 332439.03,4609789.74,0.00 332434.84,4609788.95,0.00 332432.15,4609784.46,0.00 332432.34,4609778.23,0.00 332435.39,4609747.94,0.00 332436.95,4609736.58,0.00 332439.41,4609731.08,0.00 332442.67,4609727.89,0.00 332446.42,4609727.80,0.00 332464.02,4609728.50,0.00 332478.26,4609731.28,0.00 332490.20,4609735.56,0.00 332500.18,4609741.99,0.00 332508.70,4609749.90,0.00 332515.92,4609759.29,0.00 332521.46,4609771.38,0.00 332525.26,4609784.40,0.00 332528.26,4609798.44,0.00 332529.52,4609809.74,0.00" speed="8.33" />
	<edge id="442654309_65731770_65729064" from="65731770" to="65729064" numLanes="1" shape="332448.21,4610070.17,0.00 332443.07,4610070.15,0.00" speed="8.33" />
	<edge id="8989861_65835949_65728477" from="65835949" to="65728477" numLanes="2" shape="333503.47,4610418.06,0.00 333518.71,4610423.03,0.00 333540.12,4610431.45,0.00 333552.11,4610437.84,0.00 333570.84,4610451.40,0.00 333575.70,4610456.18,0.00 333588.41,4610468.66,0.00 333602.58,4610486.88,0.00 333609.15,4610500.51,0.00 333613.90,4610514.84,0.00 333616.54,4610535.33,0.00 333616.03,4610542.58,0.00 333615.03,4610556.58,0.00 333611.36,4610574.22,0.00 333603.45,4610592.62,0.00 333601.60,4610595.52,0.00 333596.45,4610603.56,0.00 333587.77,4610613.65,0.00 333577.13,4610625.56,0.00 333562.49,4610645.00,0.00 333558.48,4610649.25,0.00 333545.35,4610664.06,0.00 333534.93,4610678.53,0.00 333527.79,4610690.47,0.00 333515.83,4610714.07,0.00" speed="8.33" />
	<edge id="8989990_65739166_65666527" from="65739166" to="65666527" numLanes="1" shape="332518.27,4609899.09,0.00 332522.79,4609885.66,0.00 332526.27,4609866.91,0.00 332527.91,4609851.43,0.00 332529.91,4609833.72,0.00 332530.34,4609819.72,0.00 332529.52,4609809.74,0.00" speed="8.33" />
	<edge id="8989998_65808859_65739166" from="65808859" to="65739166" numLanes="1" shape="332495.06,4609951.40,0.00 332503.56,4609936.65,0.00 332511.02,4609920.93,0.00 332518.27,4609899.09,0.00" speed="8.33" />
	<edge id="443247086_65731770_65785619" from="65731770" to="65785619" numLanes="2" shape="332448.21,4610070.17,0.00 332451.38,4610076.29,0.00 332455.49,4610096.71,0.00 332457.01,4610107.31,0.00 332466.49,4610129.38,0.00" speed="8.33" />
	<edge id="442654313_65729064_65837113" from="65729064" to="65837113" numLanes="1" shape="332443.07,4610070.15,0.00 332419.91,4610067.25,0.00 332379.13,4610062.64,0.00" speed="8.33" />
	<edge id="8989984_65666527_65654830" from="65666527" to="65654830" numLanes="1" shape="332529.52,4609809.74,0.00 332528.26,4609798.44,0.00 332525.26,4609784.40,0.00 332521.46,4609771.38,0.00 332515.92,4609759.29,0.00 332508.70,4609749.90,0.00 332500.18,4609741.99,0.00 332490.20,4609735.56,0.00 332478.26,4609731.28,0.00 332464.02,4609728.50,0.00 332446.42,4609727.80,0.00 332442.67,4609727.89,0.00 332439.41,4609731.08,0.00 332436.95,4609736.58,0.00 332435.39,4609747.94,0.00 332432.34,4609778.23,0.00 332432.15,4609784.46,0.00 332434.84,4609788.95,0.00 332439.03,4609789.74,0.00 332445.60,4609789.37,0.00 332449.47,4609787.16,0.00 332451.36,4609782.34,0.00 332453.16,4609759.42,0.00 332455.76,4609728.03,0.00" speed="8.33" />
	<edge id="8989327_65785619_9064757604" from="65785619" to="9064757604" numLanes="1" shape="332466.49,4610129.38,0.00 332476.73,4610142.98,0.00 332486.42,4610156.10,0.00 332499.21,4610171.45,0.00 332513.38,4610185.79,0.00 332526.74,4610198.32,0.00 332538.93,4610207.94,0.00 332550.89,4610216.52,0.00 332599.76,4610249.36,0.00" speed="8.33" />
	<edge id="665703559_65684486_65704676" from="65684486" to="65704676" numLanes="1" shape="333239.52,4610686.11,0.00 333233.44,4610705.84,0.00 333226.71,4610725.38,0.00 333220.33,4610741.45,0.00 333212.90,4610757.12,0.00 333204.47,4610772.28,0.00 333195.10,4610786.87,0.00 333184.80,4610800.83,0.00 333173.63,4610814.11,0.00 333161.63,4610826.65,0.00 333152.28,4610835.24,0.00 333148.84,4610838.39,0.00 333135.33,4610849.30,0.00 333121.15,4610859.32,0.00 333106.46,4610868.41,0.00 333091.21,4610876.57,0.00 333075.47,4610883.72,0.00 333059.30,4610889.86,0.00 333042.78,4610894.96,0.00 333025.95,4610898.99,0.00 333008.90,4610901.93,0.00 332991.83,4610903.81,0.00 332979.85,4610904.31,0.00 332974.47,4610904.54,0.00 332952.78,4610904.09,0.00" speed="8.33" />
	<edge id="8989973_65799893_9064757609" from="65799893" to="9064757609" numLanes="1" shape="333066.97,4610127.83,0.00 333070.01,4610121.98,0.00 333071.72,4610116.72,0.00 333073.52,4610111.46,0.00 333074.93,4610107.76,0.00 333076.26,4610103.95,0.00 333077.50,4610100.15,0.00 333078.80,4610095.01,0.00 333079.77,4610089.87,0.00 333080.23,4610084.64,0.00 333080.01,4610078.87,0.00 333079.13,4610073.11,0.00 333077.66,4610067.48,0.00 333076.14,4610062.85,0.00 333074.20,4610058.34,0.00 333071.85,4610054.06,0.00 333068.83,4610049.91,0.00 333065.49,4610045.88,0.00 333062.06,4610041.96,0.00 333034.11,4610015.39,0.00 333014.76,4609996.96,0.00 332970.79,4609955.66,0.00 332924.95,4609912.95,0.00 332888.90,4609879.13,0.00 332880.69,4609873.66,0.00 332874.12,4609870.92,0.00 332865.06,4609868.13,0.00 332855.35,4609866.69,0.00 332846.85,4609866.78,0.00 332833.82,4609869.30,0.00 332822.34,4609873.79,0.00 332815.12,4609878.63,0.00 332807.53,4609885.80,0.00 332785.98,4609908.74,0.00 332757.59,4609938.84,0.00 332750.38,4609947.68,0.00 332745.48,4609955.68,0.00 332741.67,4609963.88,0.00 332738.68,4609975.05,0.00 332738.20,4609986.84,0.00 332740.10,4610000.24,0.00 332744.65,4610013.13,0.00 332756.77,4610043.06,0.00 332770.88,4610079.55,0.00" speed="8.33" />
	<edge id="632740794_9064849299_65835949" from="9064849299" to="65835949" numLanes="2" shape="333500.09,4610417.16,0.00 333503.47,4610418.06,0.00" speed="8.33" />
	<edge id="979897975_9064849353_65791157" from="9064849353" to="65791157" numLanes="2" shape="332916.49,4610883.61,0.00 332913.78,4610897.50,0.00" speed="8.33" />
	<edge id="8990002_65731770_65808859" from="65731770" to="65808859" numLanes="1" shape="332448.21,4610070.17,0.00 332451.81,4610037.62,0.00 332458.73,4610016.24,0.00 332465.56,4610001.53,0.00 332472.51,4609988.81,0.00 332482.09,4609974.15,0.00 332495.06,4609951.40,0.00" speed="8.33" />
	<edge id="979897977_9064757609_9064757604" from="9064757609" to="9064757604" numLanes="1" shape="332770.88,4610079.55,0.00 332763.78,4610082.68,0.00 332752.52,4610088.83,0.00 332744.67,4610094.04,0.00 332741.83,4610095.91,0.00 332731.83,4610103.83,0.00 332713.18,4610120.55,0.00 332709.52,4610123.84,0.00 332688.00,4610144.60,0.00 332667.27,4610166.14,0.00 332660.18,4610174.07,0.00 332647.33,4610188.41,0.00 332641.97,4610194.86,0.00 332628.23,4610211.39,0.00 332609.98,4610235.06,0.00 332599.76,4610249.36,0.00" speed="8.33" />
	<edge id="8989869_65725776_65728175" from="65725776" to="65728175" numLanes="1" shape="333378.48,4610656.60,0.00 333378.82,4610653.15,0.00 333379.83,4610650.02,0.00 333381.19,4610647.65,0.00 333383.06,4610645.61,0.00 333385.19,4610643.89,0.00 333387.66,4610642.73,0.00 333390.31,4610642.00,0.00 333393.05,4610641.49,0.00 333399.13,4610641.46,0.00 333405.25,4610642.65,0.00 333411.35,4610643.73,0.00 333417.95,4610644.25,0.00 333424.54,4610644.65,0.00 333431.15,4610645.38,0.00 333435.16,4610645.96,0.00 333439.09,4610646.64,0.00 333442.71,4610647.89,0.00 333445.41,4610649.39,0.00 333447.95,4610651.21,0.00 333450.00,4610653.39,0.00 333451.40,4610656.36,0.00 333452.23,4610659.67,0.00 333452.81,4610663.10,0.00 333453.06,4610666.65,0.00 333452.89,4610670.32,0.00 333452.73,4610674.10,0.00" speed="8.33" />
	<edge id="8989327_9064757604_65785619" from="9064757604" to="65785619" numLanes="1" shape="332599.76,4610249.36,0.00 332550.89,4610216.52,0.00 332538.93,4610207.94,0.00 332526.74,4610198.32,0.00 332513.38,4610185.79,0.00 332499.21,4610171.45,0.00 332486.42,4610156.10,0.00 332476.73,4610142.98,0.00 332466.49,4610129.38,0.00" speed="8.33" />
	<edge id="979897977_65799893_65754948" from="65799893" to="65754948" numLanes="1" shape="333066.97,4610127.83,0.00 333083.96,4610137.52,0.00 333100.41,4610148.12,0.00 333116.24,4610159.61,0.00 333131.41,4610171.95,0.00 333145.87,4610185.11,0.00 333159.58,4610199.02,0.00 333172.62,4610213.72,0.00 333184.83,4610229.13,0.00 333196.17,4610245.17,0.00 333206.61,4610261.81,0.00 333216.11,4610279.01,0.00 333224.65,4610296.70,0.00 333232.20,4610314.83,0.00 333238.73,4610333.35,0.00" speed="8.33" />
	<edge id="8989973_9064757609_65799893" from="9064757609" to="65799893" numLanes="1" shape="332770.88,4610079.55,0.00 332756.77,4610043.06,0.00 332744.65,4610013.13,0.00 332740.10,4610000.24,0.00 332738.20,4609986.84,0.00 332738.68,4609975.05,0.00 332741.67,4609963.88,0.00 332745.48,4609955.68,0.00 332750.38,4609947.68,0.00 332757.59,4609938.84,0.00 332785.98,4609908.74,0.00 332807.53,4609885.80,0.00 332815.12,4609878.63,0.00 332822.34,4609873.79,0.00 332833.82,4609869.30,0.00 332846.85,4609866.78,0.00 332855.35,4609866.69,0.00 332865.06,4609868.13,0.00 332874.12,4609870.92,0.00 332880.69,4609873.66,0.00 332888.90,4609879.13,0.00 332924.95,4609912.95,0.00 332970.79,4609955.66,0.00 333014.76,4609996.96,0.00 333034.11,4610015.39,0.00 333062.06,4610041.96,0.00 333065.49,4610045.88,0.00 333068.83,4610049.91,0.00 333071.85,4610054.06,0.00 333074.20,4610058.34,0.00 333076.14,4610062.85,0.00 333077.66,4610067.48,0.00 333079.13,4610073.11,0.00 333080.01,4610078.87,0.00 333080.23,4610084.64,0.00 333079.77,4610089.87,0.00 333078.80,4610095.01,0.00 333077.50,4610100.15,0.00 333076.26,4610103.95,0.00 333074.93,4610107.76,0.00 333073.52,4610111.46,0.00 333071.72,4610116.72,0.00 333070.01,4610121.98,0.00 333066.97,4610127.83,0.00" speed="8.33" />
	<edge id="665703563_9064757616_65802025" from="9064757616" to="65802025" numLanes="1" shape="333262.17,4610457.42,0.00 333263.08,4610469.60,0.00 333263.61,4610476.78,0.00 333264.47,4610503.32,0.00 333264.21,4610529.89,0.00 333263.70,4610539.75,0.00 333262.84,4610556.42,0.00 333261.57,4610569.86,0.00" speed="8.33" />
	<edge id="665703563_65802025_9064757616" from="65802025" to="9064757616" numLanes="1" shape="333261.57,4610569.86,0.00 333262.84,4610556.42,0.00 333263.70,4610539.75,0.00 333264.21,4610529.89,0.00 333264.47,4610503.32,0.00 333263.61,4610476.78,0.00 333263.08,4610469.60,0.00 333262.17,4610457.42,0.00" speed="8.33" />
	<edge id="979897968_9064849299_9064849300" from="9064849299" to="9064849300" numLanes="2" shape="333500.09,4610417.16,0.00 333495.36,4610464.60,0.00 333494.00,4610469.08,0.00 333491.83,4610473.27,0.00 333488.93,4610476.99,0.00 333485.41,4610480.11,0.00 333481.36,4610482.55,0.00 333476.94,4610484.21,0.00 333472.29,4610485.03,0.00 333467.57,4610484.99,0.00 333462.93,4610484.10,0.00 333458.53,4610482.39,0.00 333454.52,4610479.90,0.00 333451.04,4610476.72,0.00 333448.19,4610472.97,0.00 333446.09,4610468.75,0.00 333444.79,4610464.22,0.00 333444.34,4610459.56,0.00 333449.12,4610411.58,0.00" speed="8.33" />
</edges>
