<connections>
	<connection from="8989990_65666527_65739166" to="8989990_65739166_65811791" />
	<connection from="8989990_65666527_65739166" to="8989998_65739166_65808859" />
	<connection from="8989990_65666527_65739166" to="8989990_65739166_65666527" />
	<connection from="665703559_65802025_65684486" to="665703559_65684486_65802025" />
	<connection from="665703559_65802025_65684486" to="665703559_65684486_65704676" />
	<connection from="8989984_65811791_65701784" to="8989984_65701784_65811791" />
	<connection from="8989984_65811791_65701784" to="8989984_65701784_65666527" />
	<connection from="979897977_9064849188_65652978" to="979897977_65652978_9064757604" />
	<connection from="979897977_9064849188_65652978" to="979897977_65652978_9064849188" />
	<connection from="979897977_9064849188_65652978" to="8988229_65652978_3557278301" />
	<connection from="979897977_65652978_9064757604" to="979897977_9064757604_9064757609" />
	<connection from="979897977_65652978_9064757604" to="979897977_9064757604_65652978" />
	<connection from="979897977_65652978_9064757604" to="8989327_9064757604_65785619" />
	<connection from="8988229_65652978_3557278301" to="979897976_3557278301_9064849353" />
	<connection from="8988229_65652978_3557278301" to="8988229_3557278301_65791157" />
	<connection from="442654309_65729064_65731770" to="443247086_65731770_65785619" />
	<connection from="442654309_65729064_65731770" to="442654309_65731770_65729064" />
	<connection from="442654309_65729064_65731770" to="8990002_65731770_65808859" />
	<connection from="632740795_9064757616_65634861" to="632740794_65634861_9064849300" />
	<connection from="979897977_9064757604_65652978" to="979897977_65652978_9064757604" />
	<connection from="979897977_9064757604_65652978" to="979897977_65652978_9064849188" />
	<connection from="979897977_9064757604_65652978" to="8988229_65652978_3557278301" />
	<connection from="8989325_65785619_65729064" to="442654313_65729064_65837113" />
	<connection from="8989325_65785619_65729064" to="442654309_65729064_65731770" />
	<connection from="632740793_65728175_65728477" to="8989872_65728477_65684486" />
	<connection from="632740793_65728175_65728477" to="632740793_65728477_65728175" />
	<connection from="8988229_65791157_65704676" to="273624018_65704676_9064849188" />
	<connection from="8988229_65791157_65704676" to="665703559_65704676_65684486" />
	<connection from="979897977_65652978_9064849188" to="979897977_9064849188_65652978" />
	<connection from="979897977_65652978_9064849188" to="273624018_9064849188_65674337" />
	<connection from="8989998_65739166_65808859" to="8990002_65808859_65731770" />
	<connection from="8989998_65739166_65808859" to="8989998_65808859_65739166" />
	<connection from="8989990_65811791_65739166" to="8989990_65739166_65811791" />
	<connection from="8989990_65811791_65739166" to="8989998_65739166_65808859" />
	<connection from="8989990_65811791_65739166" to="8989990_65739166_65666527" />
	<connection from="8989984_65701784_65811791" to="8989984_65811791_65701784" />
	<connection from="8989984_65701784_65811791" to="8989990_65811791_65739166" />
	<connection from="632740793_65728477_65728175" to="632740793_65728175_65728477" />
	<connection from="632740793_65728477_65728175" to="8989869_65728175_65725776" />
	<connection from="632740794_9064849300_9064849299" to="632740794_9064849299_65835949" />
	<connection from="632740794_9064849300_9064849299" to="979897968_9064849299_9064849300" />
	<connection from="665703563_65754948_9064757616" to="665703563_9064757616_65754948" />
	<connection from="665703563_65754948_9064757616" to="665703563_9064757616_65802025" />
	<connection from="665703563_65754948_9064757616" to="632740795_9064757616_65634861" />
	<connection from="273624018_65704676_9064849188" to="979897977_9064849188_65652978" />
	<connection from="273624018_65704676_9064849188" to="273624018_9064849188_65674337" />
	<connection from="979897977_65754948_65799893" to="979897977_65799893_9064757609" />
	<connection from="979897977_65754948_65799893" to="979897977_65799893_65754948" />
	<connection from="979897977_65754948_65799893" to="8989973_65799893_9064757609" />
	<connection from="8989984_65701784_65666527" to="8989990_65666527_65739166" />
	<connection from="8989984_65701784_65666527" to="8989984_65666527_65701784" />
	<connection from="8989984_65701784_65666527" to="8989984_65666527_65654830" />
	<connection from="8989990_65739166_65811791" to="8989984_65811791_65701784" />
	<connection from="8989990_65739166_65811791" to="8989990_65811791_65739166" />
	<connection from="979897976_3557278301_9064849353" to="979897976_9064849353_65704676" />
	<connection from="979897976_3557278301_9064849353" to="979897975_9064849353_65791157" />
	<connection from="979897977_65799893_9064757609" to="8989973_9064757609_65799893" />
	<connection from="979897977_65799893_9064757609" to="979897977_9064757609_9064757604" />
	<connection from="979897977_65799893_9064757609" to="979897977_9064757609_65799893" />
	<connection from="8989984_65666527_65701784" to="8989984_65701784_65811791" />
	<connection from="8989984_65666527_65701784" to="8989984_65701784_65666527" />
	<connection from="442654313_65837113_65729064" to="442654313_65729064_65837113" />
	<connection from="442654313_65837113_65729064" to="442654309_65729064_65731770" />
	<connection from="665703563_9064757616_65754948" to="665703563_65754948_9064757616" />
	<connection from="665703563_9064757616_65754948" to="979897977_65754948_65799893" />
	<connection from="979897977_9064757604_9064757609" to="8989973_9064757609_65799893" />
	<connection from="979897977_9064757604_9064757609" to="979897977_9064757609_9064757604" />
	<connection from="979897977_9064757604_9064757609" to="979897977_9064757609_65799893" />
	<connection from="979897976_9064849353_65704676" to="273624018_65704676_9064849188" />
	<connection from="979897976_9064849353_65704676" to="665703559_65704676_65684486" />
	<connection from="979897977_9064757609_65799893" to="979897977_65799893_9064757609" />
	<connection from="979897977_9064757609_65799893" to="979897977_65799893_65754948" />
	<connection from="979897977_9064757609_65799893" to="8989973_65799893_9064757609" />
	<connection from="632740794_65634861_9064849300" to="632740794_9064849300_9064849299" />
	<connection from="8990002_65808859_65731770" to="443247086_65731770_65785619" />
	<connection from="8990002_65808859_65731770" to="442654309_65731770_65729064" />
	<connection from="8990002_65808859_65731770" to="8990002_65731770_65808859" />
	<connection from="8989010_65823092_65652978" to="979897977_65652978_9064757604" />
	<connection from="8989010_65823092_65652978" to="979897977_65652978_9064849188" />
	<connection from="8989010_65823092_65652978" to="8988229_65652978_3557278301" />
	<connection from="8988229_3557278301_65791157" to="8988229_65791157_65704676" />
	<connection from="665703559_65704676_65684486" to="665703559_65684486_65802025" />
	<connection from="665703559_65704676_65684486" to="665703559_65684486_65704676" />
	<connection from="8989872_65728477_65684486" to="665703559_65684486_65802025" />
	<connection from="8989872_65728477_65684486" to="665703559_65684486_65704676" />
	<connection from="665703559_65684486_65802025" to="665703559_65802025_65684486" />
	<connection from="665703559_65684486_65802025" to="665703563_65802025_9064757616" />
	<connection from="8989869_65728175_65725776" to="8989869_65725776_65728175" />
	<connection from="8989984_65654830_65666527" to="8989990_65666527_65739166" />
	<connection from="8989984_65654830_65666527" to="8989984_65666527_65701784" />
	<connection from="8989984_65654830_65666527" to="8989984_65666527_65654830" />
	<connection from="442654309_65731770_65729064" to="442654313_65729064_65837113" />
	<connection from="442654309_65731770_65729064" to="442654309_65729064_65731770" />
	<connection from="8989861_65835949_65728477" to="8989872_65728477_65684486" />
	<connection from="8989861_65835949_65728477" to="632740793_65728477_65728175" />
	<connection from="8989990_65739166_65666527" to="8989990_65666527_65739166" />
	<connection from="8989990_65739166_65666527" to="8989984_65666527_65701784" />
	<connection from="8989990_65739166_65666527" to="8989984_65666527_65654830" />
	<connection from="8989998_65808859_65739166" to="8989990_65739166_65811791" />
	<connection from="8989998_65808859_65739166" to="8989998_65739166_65808859" />
	<connection from="8989998_65808859_65739166" to="8989990_65739166_65666527" />
	<connection from="443247086_65731770_65785619" to="8989327_65785619_9064757604" />
	<connection from="443247086_65731770_65785619" to="8989325_65785619_65729064" />
	<connection from="442654313_65729064_65837113" to="442654313_65837113_65729064" />
	<connection from="8989984_65666527_65654830" to="8989984_65654830_65666527" />
	<connection from="8989327_65785619_9064757604" to="979897977_9064757604_9064757609" />
	<connection from="8989327_65785619_9064757604" to="979897977_9064757604_65652978" />
	<connection from="8989327_65785619_9064757604" to="8989327_9064757604_65785619" />
	<connection from="665703559_65684486_65704676" to="273624018_65704676_9064849188" />
	<connection from="665703559_65684486_65704676" to="665703559_65704676_65684486" />
	<connection from="8989973_65799893_9064757609" to="8989973_9064757609_65799893" />
	<connection from="8989973_65799893_9064757609" to="979897977_9064757609_9064757604" />
	<connection from="8989973_65799893_9064757609" to="979897977_9064757609_65799893" />
	<connection from="632740794_9064849299_65835949" to="8989861_65835949_65728477" />
	<connection from="979897975_9064849353_65791157" to="8988229_65791157_65704676" />
	<connection from="8990002_65731770_65808859" to="8990002_65808859_65731770" />
	<connection from="8990002_65731770_65808859" to="8989998_65808859_65739166" />
	<connection from="979897977_9064757609_9064757604" to="979897977_9064757604_9064757609" />
	<connection from="979897977_9064757609_9064757604" to="979897977_9064757604_65652978" />
	<connection from="979897977_9064757609_9064757604" to="8989327_9064757604_65785619" />
	<connection from="8989869_65725776_65728175" to="632740793_65728175_65728477" />
	<connection from="8989869_65725776_65728175" to="8989869_65728175_65725776" />
	<connection from="8989327_9064757604_65785619" to="8989327_65785619_9064757604" />
	<connection from="8989327_9064757604_65785619" to="8989325_65785619_65729064" />
	<connection from="979897977_65799893_65754948" to="665703563_65754948_9064757616" />
	<connection from="979897977_65799893_65754948" to="979897977_65754948_65799893" />
	<connection from="8989973_9064757609_65799893" to="979897977_65799893_9064757609" />
	<connection from="8989973_9064757609_65799893" to="979897977_65799893_65754948" />
	<connection from="8989973_9064757609_65799893" to="8989973_65799893_9064757609" />
	<connection from="665703563_9064757616_65802025" to="665703559_65802025_65684486" />
	<connection from="665703563_9064757616_65802025" to="665703563_65802025_9064757616" />
	<connection from="665703563_65802025_9064757616" to="665703563_9064757616_65754948" />
	<connection from="665703563_65802025_9064757616" to="665703563_9064757616_65802025" />
	<connection from="665703563_65802025_9064757616" to="632740795_9064757616_65634861" />
	<connection from="979897968_9064849299_9064849300" to="632740794_9064849300_9064849299" />
</connections>
