<nodes>
	<node id="3557278301" x="332848.78" y="4610918.11" z="0.00" type="priority" />
	<node id="65634861" x="333448.56" y="4610411.58" z="0.00" type="priority" />
	<node id="65652978" x="332843.11" y="4610933.56" z="0.00" type="priority" />
	<node id="65654830" x="332455.76" y="4609728.03" z="0.00" type="priority" />
	<node id="65666527" x="332529.52" y="4609809.74" z="0.00" type="priority" />
	<node id="65674337" x="332812.28" y="4611090.18" z="0.00" type="priority" />
	<node id="65684486" x="333239.52" y="4610686.11" z="0.00" type="priority" />
	<node id="65701784" x="332512.47" y="4609843.35" z="0.00" type="priority" />
	<node id="65704676" x="332952.78" y="4610904.09" z="0.00" type="priority" />
	<node id="65725776" x="333378.48" y="4610656.60" z="0.00" type="priority" />
	<node id="65728175" x="333452.73" y="4610674.10" z="0.00" type="priority" />
	<node id="65728477" x="333515.83" y="4610714.07" z="0.00" type="priority" />
	<node id="65729064" x="332443.07" y="4610070.15" z="0.00" type="priority" />
	<node id="65731770" x="332448.21" y="4610070.17" z="0.00" type="priority" />
	<node id="65739166" x="332518.27" y="4609899.09" z="0.00" type="priority" />
	<node id="65754948" x="333238.73" y="4610333.35" z="0.00" type="priority" />
	<node id="65785619" x="332466.49" y="4610129.38" z="0.00" type="priority" />
	<node id="65791157" x="332913.78" y="4610897.50" z="0.00" type="priority" />
	<node id="65799893" x="333066.97" y="4610127.83" z="0.00" type="priority" />
	<node id="65802025" x="333261.57" y="4610569.86" z="0.00" type="priority" />
	<node id="65808859" x="332495.06" y="4609951.40" z="0.00" type="priority" />
	<node id="65811791" x="332510.42" y="4609862.84" z="0.00" type="priority" />
	<node id="65823092" x="332789.16" y="4611080.55" z="0.00" type="priority" />
	<node id="65835949" x="333503.47" y="4610418.06" z="0.00" type="priority" />
	<node id="65837113" x="332379.13" y="4610062.64" z="0.00" type="priority" />
	<node id="9064757604" x="332599.76" y="4610249.36" z="0.00" type="priority" />
	<node id="9064757609" x="332770.88" y="4610079.55" z="0.00" type="priority" />
	<node id="9064757616" x="333262.17" y="4610457.42" z="0.00" type="priority" />
	<node id="9064849188" x="332865.15" y="4610946.11" z="0.00" type="priority" />
	<node id="9064849299" x="333500.09" y="4610417.16" z="0.00" type="priority" />
	<node id="9064849300" x="333449.12" y="4610411.58" z="0.00" type="priority" />
	<node id="9064849353" x="332916.49" y="4610883.61" z="0.00" type="priority" />
</nodes>
