<?xml version="1.0" ?>
<!-- Generated by MOSAIC scenario-convert 22.1 -->
<routes>
	<vType id="default" length="7.5" maxSpeed="50" minGap="2.0" carFollowModel="Krauss" accel="0.80" decel="4.5" sigma="0.5" tau="1"/>
	<route id="1" edges="665703559_65684486_65704676 273624018_65704676_9064849188 979897977_9064849188_65652978 979897977_65652978_9064757604 979897977_9064757604_65652978" />
	<route id="2" edges="665703559_65684486_65704676 273624018_65704676_9064849188 979897977_9064849188_65652978 8988229_65652978_3557278301 979897976_3557278301_9064849353 979897976_9064849353_65704676 665703559_65704676_65684486 665703559_65684486_65802025 665703563_65802025_9064757616 665703563_9064757616_65754948 979897977_65754948_65799893 979897977_65799893_9064757609 979897977_9064757609_9064757604 979897977_9064757604_65652978" />
</routes>